Alim_Meia_Ponte_5_REDUZIDO/PVSystem_120_Irrad.dss
New XYcurve.TemperaturexFactor npts=4 xarray=[0 25 75 100] yarray=[1.2 1 0.8 0.6]  //Temperatura x Fator multiplicativo da potência
New XYcurve.PowerInputxEfficiency npts=4 xarray=[0.1 0.2 0.4 1] yarray=[0.86 0.9 0.93 0.97] //Potência em pu

New Tshape.Temperature npts=24 interval=1
~ temp=[25 25 25 25 25 25 25 25 35 40 45 50 60 60 55 40 35 30 25 25 25 25 25 25]

New Loadshape.Irrad1 npts=24 interval=1
~ mult=[0.0, 0.0, 0.0, 0.0, 0.0, 0.0, 0.005388279452054794, 0.10067196712328769, 0.2980870301369863, 0.5046130082191781, 0.6709066356164383, 0.780737101369863, 0.832743709589041, 0.7941455397260273, 0.6763058465753424, 0.5100561698630137, 0.3141507890410959, 0.12565195616438357, 0.011908953424657535, 0.0, 0.0, 0.0, 0.0, 0.0]

New Loadshape.Irrad2 npts=24 interval=1
~ mult=[0.0, 0.0, 0.0, 0.0, 0.0, 0.0, 0.005387742465753425, 0.10066934794520548, 0.29808701917808217, 0.5046130082191781, 0.6709066356164383, 0.780737101369863, 0.832743709589041, 0.7941455342465754, 0.6763058465753424, 0.5100561698630137, 0.31415079452054795, 0.12565195616438357, 0.011909112328767124, 0.0, 0.0, 0.0, 0.0, 0.0]

New Loadshape.Irrad3 npts=24 interval=1
~ mult=[0.0, 0.0, 0.0, 0.0, 0.0, 0.0, 0.005388120547945205, 0.10051913424657533, 0.2980870301369863, 0.5046130082191781, 0.6709066356164383, 0.780737101369863, 0.832743709589041, 0.7941455397260273, 0.6763058465753424, 0.5100561698630137, 0.31415079452054795, 0.12565195616438357, 0.011908975342465752, 0.0, 0.0, 0.0, 0.0, 0.0]

New Loadshape.Irrad4 npts=24 interval=1
~ mult=[0.0, 0.0, 0.0, 0.0, 0.0, 0.0, 0.005387950684931507, 0.10066961095890412, 0.29808701917808217, 0.5046130082191781, 0.6709066356164383, 0.780737101369863, 0.832743709589041, 0.7941455342465754, 0.6763058465753424, 0.5100561698630137, 0.3141507890410959, 0.12565195616438357, 0.011909101369863017, 0.0, 0.0, 0.0, 0.0, 0.0]

New Loadshape.Irrad5 npts=24 interval=1
~ mult=[0.0, 0.0, 0.0, 0.0, 0.0, 0.0, 0.00538812602739726, 0.10066997260273972, 0.29808701917808217, 0.5046130082191781, 0.6709066356164383, 0.780737101369863, 0.832743709589041, 0.7941455342465754, 0.6763058465753424, 0.5100561698630137, 0.3141507890410959, 0.12565195616438357, 0.01190906301369863, 0.0, 0.0, 0.0, 0.0, 0.0]

New Loadshape.Irrad6 npts=24 interval=1
~ mult=[0.0, 0.0, 0.0, 0.0, 0.0, 0.0, 0.005345331506849315, 0.09955983561643836, 0.29567610410958906, 0.5007078465753424, 0.6701137479452055, 0.7791326739726027, 0.8309847726027396, 0.7940216383561643, 0.6751300164383561, 0.5109946904109589, 0.31669089315068494, 0.12606025753424657, 0.011779780821917806, 0.0, 0.0, 0.0, 0.0, 0.0]

New Loadshape.Irrad7 npts=24 interval=1
~ mult=[0.0, 0.0, 0.0, 0.0, 0.0, 0.0, 0.0053881369863013695, 0.1006701424657534, 0.2980870246575342, 0.5046130082191781, 0.6709066356164383, 0.780737101369863, 0.832743709589041, 0.7941455342465754, 0.6763058465753424, 0.5100561698630137, 0.3141507890410959, 0.12565195616438357, 0.01190905205479452, 0.0, 0.0, 0.0, 0.0, 0.0]

New Loadshape.Irrad8 npts=24 interval=1
~ mult=[0.0, 0.0, 0.0, 0.0, 0.0, 0.0, 0.0053879999999999996, 0.10067151780821917, 0.2980870301369863, 0.5046130082191781, 0.6709066356164383, 0.780737101369863, 0.832743709589041, 0.7941455397260273, 0.6763058465753424, 0.5100561698630137, 0.31415079452054795, 0.12565195616438357, 0.011909002739726027, 0.0, 0.0, 0.0, 0.0, 0.0]

New Loadshape.Irrad9 npts=24 interval=1
~ mult=[0.0, 0.0, 0.0, 0.0, 0.0, 0.0, 0.005388186301369864, 0.10067093150684932, 0.2980870246575342, 0.5046130082191781, 0.6709066356164383, 0.780737101369863, 0.832743709589041, 0.7941455342465754, 0.6763058465753424, 0.5100561698630137, 0.3141507890410959, 0.12565195616438357, 0.011909019178082191, 0.0, 0.0, 0.0, 0.0, 0.0]

New Loadshape.Irrad10 npts=24 interval=1
~ mult=[0.0, 0.0, 0.0, 0.0, 0.0, 0.0, 0.005388339726027397, 0.10067309041095891, 0.2980870301369863, 0.5046130082191781, 0.6709066356164383, 0.780737101369863, 0.832743709589041, 0.7941455397260273, 0.6763058465753424, 0.5100561698630137, 0.31415079452054795, 0.12565195616438357, 0.011890854794520548, 0.0, 0.0, 0.0, 0.0, 0.0]

New Loadshape.Irrad11 npts=24 interval=1
~ mult=[0.0, 0.0, 0.0, 0.0, 0.0, 0.0, 0.005388120547945205, 0.10067221369863012, 0.2980870301369863, 0.5046130082191781, 0.6709066356164383, 0.780737101369863, 0.832743709589041, 0.7941455397260273, 0.6763058465753424, 0.5100561698630137, 0.31415079452054795, 0.12565195616438357, 0.011908958904109593, 0.0, 0.0, 0.0, 0.0, 0.0]

New Loadshape.Irrad12 npts=24 interval=1
~ mult=[0.0, 0.0, 0.0, 0.0, 0.0, 0.0, 0.005388602739726027, 0.10067357260273972, 0.2980870301369863, 0.5046130082191781, 0.6709066356164383, 0.780737101369863, 0.832743709589041, 0.7941455397260273, 0.6763058465753424, 0.5100561698630137, 0.3141507890410959, 0.12565195616438357, 0.0118908, 0.0, 0.0, 0.0, 0.0, 0.0]

New Loadshape.Irrad13 npts=24 interval=1
~ mult=[0.0, 0.0, 0.0, 0.0, 0.0, 0.0, 0.005387660273972603, 0.100669698630137, 0.2980870246575342, 0.5046130082191781, 0.6709066356164383, 0.780737101369863, 0.832743709589041, 0.7941455397260273, 0.6763058465753424, 0.5100561698630137, 0.31415079452054795, 0.12565195616438357, 0.011909106849315067, 0.0, 0.0, 0.0, 0.0, 0.0]

New Loadshape.Irrad14 npts=24 interval=1
~ mult=[0.0, 0.0, 0.0, 0.0, 0.0, 0.0, 0.005387994520547945, 0.10017269041095891, 0.2980870246575342, 0.5046130082191781, 0.6709066356164383, 0.780737101369863, 0.832743709589041, 0.7941455397260273, 0.6763058465753424, 0.5100561698630137, 0.31415079452054795, 0.12565195616438357, 0.011909024657534246, 0.0, 0.0, 0.0, 0.0, 0.0]

New Loadshape.Irrad15 npts=24 interval=1
~ mult=[0.0, 0.0, 0.0, 0.0, 0.0, 0.0, 0.005388065753424658, 0.10067118904109588, 0.2980870246575342, 0.5046130082191781, 0.6709066356164383, 0.780737101369863, 0.832743709589041, 0.7941455397260273, 0.6763058465753424, 0.5100561698630137, 0.31415079452054795, 0.12565195616438357, 0.011909024657534246, 0.0, 0.0, 0.0, 0.0, 0.0]

New Loadshape.Irrad16 npts=24 interval=1
~ mult=[0.0, 0.0, 0.0, 0.0, 0.0, 0.0, 0.005387978082191781, 0.1006708, 0.2980870246575342, 0.5046130082191781, 0.6709066356164383, 0.780737101369863, 0.832743709589041, 0.7941455397260273, 0.6763058465753424, 0.5100561698630137, 0.31415079452054795, 0.12565195616438357, 0.011909046575342464, 0.0, 0.0, 0.0, 0.0, 0.0]

New Loadshape.Irrad17 npts=24 interval=1
~ mult=[0.0, 0.0, 0.0, 0.0, 0.0, 0.0, 0.005388054794520548, 0.10067066849315069, 0.2980870246575342, 0.5046130082191781, 0.6709066356164383, 0.780737101369863, 0.832743709589041, 0.7941455397260273, 0.6763058465753424, 0.5100561698630137, 0.3141507890410959, 0.12565195616438357, 0.011909035616438355, 0.0, 0.0, 0.0, 0.0, 0.0]

New Loadshape.Irrad18 npts=24 interval=1
~ mult=[0.0, 0.0, 0.0, 0.0, 0.0, 0.0, 0.005387753424657534, 0.10066924931506849, 0.29808701917808217, 0.5046130082191781, 0.6709066356164383, 0.780737101369863, 0.832743709589041, 0.7941455342465754, 0.6763058465753424, 0.5100561698630137, 0.3141507890410959, 0.12565195616438357, 0.011909112328767124, 0.0, 0.0, 0.0, 0.0, 0.0]

New Loadshape.Irrad19 npts=24 interval=1
~ mult=[0.0, 0.0, 0.0, 0.0, 0.0, 0.0, 0.005387731506849315, 0.1006697315068493, 0.2980870246575342, 0.5046130082191781, 0.6709066356164383, 0.780737101369863, 0.832743709589041, 0.7941455397260273, 0.6763058465753424, 0.5100561698630137, 0.31415079452054795, 0.12565195616438357, 0.011902224657534245, 0.0, 0.0, 0.0, 0.0, 0.0]

New Loadshape.Irrad20 npts=24 interval=1
~ mult=[0.0, 0.0, 0.0, 0.0, 0.0, 0.0, 0.005388098630136986, 0.10066972054794521, 0.29808701917808217, 0.5046130082191781, 0.6709066356164383, 0.780737101369863, 0.832743709589041, 0.7941455342465754, 0.6763058465753424, 0.5100561698630137, 0.3141507890410959, 0.12565195616438357, 0.011909079452054796, 0.0, 0.0, 0.0, 0.0, 0.0]

New Loadshape.Irrad21 npts=24 interval=1
~ mult=[0.0, 0.0, 0.0, 0.0, 0.0, 0.0, 0.005399117808219178, 0.10067417534246575, 0.2980870301369863, 0.5046130082191781, 0.6709066356164383, 0.780737101369863, 0.832743709589041, 0.7941455397260273, 0.6763058465753424, 0.5100561698630137, 0.3141507890410959, 0.12565195616438357, 0.011890761643835615, 0.0, 0.0, 0.0, 0.0, 0.0]

New Loadshape.Irrad22 npts=24 interval=1
~ mult=[0.0, 0.0, 0.0, 0.0, 0.0, 0.0, 0.005388153424657534, 0.10067284931506848, 0.2980870301369863, 0.5046130082191781, 0.6709066356164383, 0.780737101369863, 0.832743709589041, 0.7941455452054795, 0.6763058465753424, 0.5100561698630137, 0.31415079452054795, 0.12565195616438357, 0.011874838356164383, 0.0, 0.0, 0.0, 0.0, 0.0]

New Loadshape.Irrad23 npts=24 interval=1
~ mult=[0.0, 0.0, 0.0, 0.0, 0.0, 0.0, 0.005388202739726028, 0.10067275616438355, 0.2980870301369863, 0.5046130082191781, 0.6709066356164383, 0.780737101369863, 0.832743709589041, 0.7941455397260273, 0.6763058465753424, 0.5100561698630137, 0.31415079452054795, 0.12565195616438357, 0.011908931506849315, 0.0, 0.0, 0.0, 0.0, 0.0]

New Loadshape.Irrad24 npts=24 interval=1
~ mult=[0.0, 0.0, 0.0, 0.0, 0.0, 0.0, 0.005387928767123288, 0.1006697315068493, 0.29808701917808217, 0.5046130082191781, 0.6709066356164383, 0.780737101369863, 0.832743709589041, 0.7941455342465754, 0.6763058465753424, 0.5100561698630137, 0.3141507890410959, 0.12565195616438357, 0.011909101369863017, 0.0, 0.0, 0.0, 0.0, 0.0]

New Loadshape.Irrad25 npts=24 interval=1
~ mult=[0.0, 0.0, 0.0, 0.0, 0.0, 0.0, 0.005388394520547945, 0.10067373150684931, 0.2980870301369863, 0.5046130082191781, 0.6709066356164383, 0.780737101369863, 0.832743709589041, 0.7941455506849314, 0.6763058465753424, 0.5100561698630137, 0.31415079452054795, 0.12565195616438357, 0.011900668493150685, 0.0, 0.0, 0.0, 0.0, 0.0]

New Loadshape.Irrad26 npts=24 interval=1
~ mult=[0.0, 0.0, 0.0, 0.0, 0.0, 0.0, 0.005388202739726028, 0.10067231232876712, 0.2980870301369863, 0.5046130082191781, 0.6709066356164383, 0.780737101369863, 0.832743709589041, 0.7941455397260273, 0.6763058465753424, 0.5100561698630137, 0.31415079452054795, 0.12565195616438357, 0.011908953424657535, 0.0, 0.0, 0.0, 0.0, 0.0]

New Loadshape.Irrad27 npts=24 interval=1
~ mult=[0.0, 0.0, 0.0, 0.0, 0.0, 0.0, 0.005388021917808219, 0.10066983561643836, 0.29808701917808217, 0.5046130082191781, 0.6709066356164383, 0.780737101369863, 0.832743709589041, 0.7941455342465754, 0.6763058465753424, 0.5100561698630137, 0.3141507890410959, 0.12565195616438357, 0.011909079452054796, 0.0, 0.0, 0.0, 0.0, 0.0]

New Loadshape.Irrad28 npts=24 interval=1
~ mult=[0.0, 0.0, 0.0, 0.0, 0.0, 0.0, 0.005388230136986302, 0.10067210410958904, 0.2980870301369863, 0.5046130082191781, 0.6709066356164383, 0.780737101369863, 0.832743709589041, 0.7941455397260273, 0.6763058465753424, 0.5100561698630137, 0.3141507890410959, 0.12565195616438357, 0.011908953424657535, 0.0, 0.0, 0.0, 0.0, 0.0]

New Loadshape.Irrad29 npts=24 interval=1
~ mult=[0.0, 0.0, 0.0, 0.0, 0.0, 0.0, 0.005387956164383562, 0.1006703890410959, 0.2980870246575342, 0.5046130082191781, 0.6709066356164383, 0.780737101369863, 0.832743709589041, 0.7941455397260273, 0.6763058465753424, 0.5100561698630137, 0.3141507890410959, 0.12565195616438357, 0.011909068493150685, 0.0, 0.0, 0.0, 0.0, 0.0]

New Loadshape.Irrad30 npts=24 interval=1
~ mult=[0.0, 0.0, 0.0, 0.0, 0.0, 0.0, 0.005370454794520548, 0.10051893150684932, 0.2980870246575342, 0.5046130082191781, 0.6709066356164383, 0.780737101369863, 0.832743709589041, 0.7941455397260273, 0.6763058465753424, 0.5100561698630137, 0.3141507890410959, 0.12565195616438357, 0.011909002739726027, 0.0, 0.0, 0.0, 0.0, 0.0]

New Loadshape.Irrad31 npts=24 interval=1
~ mult=[0.0, 0.0, 0.0, 0.0, 0.0, 0.0, 0.005345243835616439, 0.09956001095890411, 0.29567610410958906, 0.5007078465753424, 0.6701137479452055, 0.7791326739726027, 0.8309847726027396, 0.7940216383561643, 0.6751300219178082, 0.5109946904109589, 0.316690898630137, 0.12606025753424657, 0.011779775342465755, 0.0, 0.0, 0.0, 0.0, 0.0]

New Loadshape.Irrad32 npts=24 interval=1
~ mult=[0.0, 0.0, 0.0, 0.0, 0.0, 0.0, 0.005388356164383562, 0.10067032328767123, 0.2980870246575342, 0.5046130082191781, 0.6709066356164383, 0.780737101369863, 0.832743709589041, 0.7941455342465754, 0.6763058410958904, 0.5100561698630137, 0.3141507890410959, 0.1256519506849315, 0.011909035616438355, 0.0, 0.0, 0.0, 0.0, 0.0]

New Loadshape.Irrad33 npts=24 interval=1
~ mult=[0.0, 0.0, 0.0, 0.0, 0.0, 0.0, 0.005387989041095891, 0.10067258082191781, 0.2980870301369863, 0.5046130082191781, 0.6709066356164383, 0.780737101369863, 0.832743709589041, 0.7941455506849314, 0.6763058465753424, 0.5100561698630137, 0.31415079452054795, 0.12565195616438357, 0.01190075616438356, 0.0, 0.0, 0.0, 0.0, 0.0]

New Loadshape.Irrad34 npts=24 interval=1
~ mult=[0.0, 0.0, 0.0, 0.0, 0.0, 0.0, 0.005388191780821918, 0.10051837808219176, 0.2980870246575342, 0.5046130082191781, 0.6709066356164383, 0.780737101369863, 0.832743709589041, 0.7941455342465754, 0.6763058465753424, 0.5100561698630137, 0.3141507890410959, 0.12565195616438357, 0.011909035616438355, 0.0, 0.0, 0.0, 0.0, 0.0]

New Loadshape.Irrad35 npts=24 interval=1
~ mult=[0.0, 0.0, 0.0, 0.0, 0.0, 0.0, 0.005388345205479451, 0.1006732383561644, 0.2980870301369863, 0.5046130082191781, 0.6709066356164383, 0.780737101369863, 0.832743709589041, 0.7941455397260273, 0.6763058465753424, 0.5100561698630137, 0.31415079452054795, 0.12565195616438357, 0.011893457534246575, 0.0, 0.0, 0.0, 0.0, 0.0]

New Loadshape.Irrad36 npts=24 interval=1
~ mult=[0.0, 0.0, 0.0, 0.0, 0.0, 0.0, 0.005399117808219178, 0.10067424657534248, 0.2980870301369863, 0.5046130082191781, 0.6709066356164383, 0.780737101369863, 0.832743709589041, 0.7941455397260273, 0.6763058465753424, 0.5100561698630137, 0.3141507890410959, 0.12565195616438357, 0.011892926027397261, 0.0, 0.0, 0.0, 0.0, 0.0]

New Loadshape.Irrad37 npts=24 interval=1
~ mult=[0.0, 0.0, 0.0, 0.0, 0.0, 0.0, 0.0053884876712328765, 0.10067397808219178, 0.2980870301369863, 0.5046130082191781, 0.6709066356164383, 0.780737101369863, 0.832743709589041, 0.7941455452054795, 0.6763058465753424, 0.5100561698630137, 0.31415079452054795, 0.12565195616438357, 0.011893391780821917, 0.0, 0.0, 0.0, 0.0, 0.0]

New Loadshape.Irrad38 npts=24 interval=1
~ mult=[0.0, 0.0, 0.0, 0.0, 0.0, 0.0, 0.00538812602739726, 0.10067202191780822, 0.2980870301369863, 0.5046130082191781, 0.6709066356164383, 0.780737101369863, 0.832743709589041, 0.7941455397260273, 0.6763058465753424, 0.5100561698630137, 0.31415079452054795, 0.12565195616438357, 0.011908958904109593, 0.0, 0.0, 0.0, 0.0, 0.0]

New Loadshape.Irrad39 npts=24 interval=1
~ mult=[0.0, 0.0, 0.0, 0.0, 0.0, 0.0, 0.005396153424657534, 0.1006737095890411, 0.2980870301369863, 0.5046130082191781, 0.6709066356164383, 0.780737101369863, 0.832743709589041, 0.7941455397260273, 0.6763058465753424, 0.5100561698630137, 0.3141507890410959, 0.12565195616438357, 0.011880213698630139, 0.0, 0.0, 0.0, 0.0, 0.0]

New Loadshape.Irrad40 npts=24 interval=1
~ mult=[0.0, 0.0, 0.0, 0.0, 0.0, 0.0, 0.005407112328767123, 0.10067362739726028, 0.2980870301369863, 0.5046130082191781, 0.6709066356164383, 0.780737101369863, 0.832743709589041, 0.7941455397260273, 0.6763058465753424, 0.5100561698630137, 0.3141507890410959, 0.1256519506849315, 0.011908805479452054, 0.0, 0.0, 0.0, 0.0, 0.0]

New Loadshape.Irrad41 npts=24 interval=1
~ mult=[0.0, 0.0, 0.0, 0.0, 0.0, 0.0, 0.00538825205479452, 0.1006724712328767, 0.2980870301369863, 0.5046130082191781, 0.6709066356164383, 0.780737101369863, 0.832743709589041, 0.7941455397260273, 0.6763058465753424, 0.5100561698630137, 0.31415079452054795, 0.12565195616438357, 0.011908953424657535, 0.0, 0.0, 0.0, 0.0, 0.0]

New Loadshape.Irrad42 npts=24 interval=1
~ mult=[0.0, 0.0, 0.0, 0.0, 0.0, 0.0, 0.005403030136986301, 0.10067343013698632, 0.2980870301369863, 0.5046130082191781, 0.6709066356164383, 0.780737101369863, 0.832743709589041, 0.7941455397260273, 0.6763058465753424, 0.5100561698630137, 0.3141507890410959, 0.1256519506849315, 0.011873331506849317, 0.0, 0.0, 0.0, 0.0, 0.0]

New Loadshape.Irrad43 npts=24 interval=1
~ mult=[0.0, 0.0, 0.0, 0.0, 0.0, 0.0, 0.005399232876712329, 0.10067309589041096, 0.2980870301369863, 0.5046130082191781, 0.6709066356164383, 0.780737101369863, 0.832743709589041, 0.7941455397260273, 0.6763058465753424, 0.5100561698630137, 0.3141507890410959, 0.1256519506849315, 0.011908876712328766, 0.0, 0.0, 0.0, 0.0, 0.0]

New Loadshape.Irrad44 npts=24 interval=1
~ mult=[0.0, 0.0, 0.0, 0.0, 0.0, 0.0, 0.005388169863013699, 0.10067328767123289, 0.2980870301369863, 0.5046130082191781, 0.6709066356164383, 0.780737101369863, 0.832743709589041, 0.7941455506849314, 0.6763058465753424, 0.5100561698630137, 0.31415079452054795, 0.12565195616438357, 0.011893024657534246, 0.0, 0.0, 0.0, 0.0, 0.0]

New Loadshape.Irrad45 npts=24 interval=1
~ mult=[0.0, 0.0, 0.0, 0.0, 0.0, 0.0, 0.005388465753424658, 0.1006732602739726, 0.2980870301369863, 0.5046130082191781, 0.6709066356164383, 0.780737101369863, 0.832743709589041, 0.7941455397260273, 0.6763058465753424, 0.5100561698630137, 0.3141507890410959, 0.12565195616438357, 0.01189301917808219, 0.0, 0.0, 0.0, 0.0, 0.0]

New Loadshape.Irrad46 npts=24 interval=1
~ mult=[0.0, 0.0, 0.0, 0.0, 0.0, 0.0, 0.005388158904109589, 0.10017215890410959, 0.2980870246575342, 0.5046130082191781, 0.6709066356164383, 0.780737101369863, 0.832743709589041, 0.7941455342465754, 0.6763058465753424, 0.5100561698630137, 0.3141507890410959, 0.12565195616438357, 0.011909035616438355, 0.0, 0.0, 0.0, 0.0, 0.0]

New Loadshape.Irrad47 npts=24 interval=1
~ mult=[0.0, 0.0, 0.0, 0.0, 0.0, 0.0, 0.005370164383561644, 0.10051800547945205, 0.2980870246575342, 0.5046130082191781, 0.6709066356164383, 0.780737101369863, 0.832743709589041, 0.7941455397260273, 0.6763058465753424, 0.5100561698630137, 0.31415079452054795, 0.12565195616438357, 0.011909068493150685, 0.0, 0.0, 0.0, 0.0, 0.0]

New Loadshape.Irrad48 npts=24 interval=1
~ mult=[0.0, 0.0, 0.0, 0.0, 0.0, 0.0, 0.0053879999999999996, 0.100671698630137, 0.2980870301369863, 0.5046130082191781, 0.6709066356164383, 0.780737101369863, 0.832743709589041, 0.7941455397260273, 0.6763058465753424, 0.5100561698630137, 0.31415079452054795, 0.12565195616438357, 0.011908986301369865, 0.0, 0.0, 0.0, 0.0, 0.0]

New Loadshape.Irrad49 npts=24 interval=1
~ mult=[0.0, 0.0, 0.0, 0.0, 0.0, 0.0, 0.005388306849315068, 0.10067033424657533, 0.2980870246575342, 0.5046130082191781, 0.6709066356164383, 0.780737101369863, 0.832743709589041, 0.7941455342465754, 0.6763058465753424, 0.5100561698630137, 0.3141507890410959, 0.12565195616438357, 0.011909035616438355, 0.0, 0.0, 0.0, 0.0, 0.0]

New Loadshape.Irrad50 npts=24 interval=1
~ mult=[0.0, 0.0, 0.0, 0.0, 0.0, 0.0, 0.005388312328767123, 0.10067269589041096, 0.2980870301369863, 0.5046130082191781, 0.6709066356164383, 0.780737101369863, 0.832743709589041, 0.7941455397260273, 0.6763058465753424, 0.5100561698630137, 0.31415079452054795, 0.12565195616438357, 0.01190892602739726, 0.0, 0.0, 0.0, 0.0, 0.0]

New Loadshape.Irrad51 npts=24 interval=1
~ mult=[0.0, 0.0, 0.0, 0.0, 0.0, 0.0, 0.005403095890410959, 0.1006741698630137, 0.2980870301369863, 0.5046130082191781, 0.6709066356164383, 0.780737101369863, 0.832743709589041, 0.7941455397260273, 0.6763058465753424, 0.5100561698630137, 0.3141507890410959, 0.1256519506849315, 0.011551232876712328, 0.0, 0.0, 0.0, 0.0, 0.0]

New Loadshape.Irrad52 npts=24 interval=1
~ mult=[0.0, 0.0, 0.0, 0.0, 0.0, 0.0, 0.005345265753424657, 0.09956041095890411, 0.29567610410958906, 0.5007078465753424, 0.6701137479452055, 0.7791326739726027, 0.8309847726027396, 0.7940216383561643, 0.6751300219178082, 0.5109946904109589, 0.316690898630137, 0.12606025753424657, 0.011763101369863013, 0.0, 0.0, 0.0, 0.0, 0.0]

New Loadshape.Irrad53 npts=24 interval=1
~ mult=[0.0, 0.0, 0.0, 0.0, 0.0, 0.0, 0.0053885041095890415, 0.10067428493150685, 0.2980870301369863, 0.5046130082191781, 0.6709066356164383, 0.780737101369863, 0.832743709589041, 0.7941455506849314, 0.6763058465753424, 0.5100561698630137, 0.31415079452054795, 0.12565195616438357, 0.011891660273972605, 0.0, 0.0, 0.0, 0.0, 0.0]

New Loadshape.Irrad54 npts=24 interval=1
~ mult=[0.0, 0.0, 0.0, 0.0, 0.0, 0.0, 0.005399221917808218, 0.10067386301369863, 0.2980870301369863, 0.5046130082191781, 0.6709066356164383, 0.780737101369863, 0.832743709589041, 0.7941455397260273, 0.6763058465753424, 0.5100561698630137, 0.3141507890410959, 0.1256519506849315, 0.011873320547945203, 0.0, 0.0, 0.0, 0.0, 0.0]

New Loadshape.Irrad55 npts=24 interval=1
~ mult=[0.0, 0.0, 0.0, 0.0, 0.0, 0.0, 0.005388630136986301, 0.1006708109589041, 0.2980870246575342, 0.5046130082191781, 0.6709066356164383, 0.780737101369863, 0.832743709589041, 0.7941455342465754, 0.6763058410958904, 0.5100561698630137, 0.3141507890410959, 0.1256519506849315, 0.011900350684931508, 0.0, 0.0, 0.0, 0.0, 0.0]

New Loadshape.Irrad56 npts=24 interval=1
~ mult=[0.0, 0.0, 0.0, 0.0, 0.0, 0.0, 0.00538838904109589, 0.10067281643835617, 0.2980870301369863, 0.5046130082191781, 0.6709066356164383, 0.780737101369863, 0.832743709589041, 0.7941455397260273, 0.6763058465753424, 0.5100561698630137, 0.3141507890410959, 0.12565195616438357, 0.01190892602739726, 0.0, 0.0, 0.0, 0.0, 0.0]

New Loadshape.Irrad57 npts=24 interval=1
~ mult=[0.0, 0.0, 0.0, 0.0, 0.0, 0.0, 0.005388065753424658, 0.10067100273972603, 0.2980870246575342, 0.5046130082191781, 0.6709066356164383, 0.780737101369863, 0.832743709589041, 0.7941455397260273, 0.6763058465753424, 0.5100561698630137, 0.3141507890410959, 0.12565195616438357, 0.011909030136986305, 0.0, 0.0, 0.0, 0.0, 0.0]

New Loadshape.Irrad58 npts=24 interval=1
~ mult=[0.0, 0.0, 0.0, 0.0, 0.0, 0.0, 0.005388208219178081, 0.1006712219178082, 0.2980870246575342, 0.5046130082191781, 0.6709066356164383, 0.780737101369863, 0.832743709589041, 0.7941455397260273, 0.6763058465753424, 0.5100561698630137, 0.3141507890410959, 0.12565195616438357, 0.011909002739726027, 0.0, 0.0, 0.0, 0.0, 0.0]

New Loadshape.Irrad59 npts=24 interval=1
~ mult=[0.0, 0.0, 0.0, 0.0, 0.0, 0.0, 0.005399161643835616, 0.10067346301369862, 0.2980870301369863, 0.5046130082191781, 0.6709066356164383, 0.780737101369863, 0.832743709589041, 0.7941455397260273, 0.6763058465753424, 0.5100561698630137, 0.3141507890410959, 0.1256519506849315, 0.011879435616438356, 0.0, 0.0, 0.0, 0.0, 0.0]

New Loadshape.Irrad60 npts=24 interval=1
~ mult=[0.0, 0.0, 0.0, 0.0, 0.0, 0.0, 0.005388602739726027, 0.10067092602739726, 0.2980870246575342, 0.5046130082191781, 0.6709066356164383, 0.780737101369863, 0.832743709589041, 0.7941455342465754, 0.6763058410958904, 0.5100561698630137, 0.3141507890410959, 0.1256519506849315, 0.011908997260273972, 0.0, 0.0, 0.0, 0.0, 0.0]


New PVSystem.PV_1 phases=3 bus1=82036275286964.1.2.3.4 kv=0.38 pmpp=288.8419043299156 temperature=25 pf=1 
~ %cutin=0.1 %cutout=0.1 effcurve=PowerInputxEfficiency P-tCurve=TemperaturexFactor Daily=Irrad1 Tdaily=Temperature
New PVSystem.PV_2 phases=3 bus1=82036275286964.1.2.3.4 kv=0.38 pmpp=288.8419043299156 temperature=25 pf=1 
~ %cutin=0.1 %cutout=0.1 effcurve=PowerInputxEfficiency P-tCurve=TemperaturexFactor Daily=Irrad1 Tdaily=Temperature
New PVSystem.PV_3 phases=3 bus1=82026915286812.1.2.3.4 kv=0.38 pmpp=260.06644031309196 temperature=25 pf=1 
~ %cutin=0.1 %cutout=0.1 effcurve=PowerInputxEfficiency P-tCurve=TemperaturexFactor Daily=Irrad2 Tdaily=Temperature
New PVSystem.PV_4 phases=3 bus1=82026915286812.1.2.3.4 kv=0.38 pmpp=260.06644031309196 temperature=25 pf=1 
~ %cutin=0.1 %cutout=0.1 effcurve=PowerInputxEfficiency P-tCurve=TemperaturexFactor Daily=Irrad2 Tdaily=Temperature
New PVSystem.PV_5 phases=3 bus1=82032765552819.1.2.3.4 kv=0.38 pmpp=216.98966433097652 temperature=25 pf=1 
~ %cutin=0.1 %cutout=0.1 effcurve=PowerInputxEfficiency P-tCurve=TemperaturexFactor Daily=Irrad3 Tdaily=Temperature
New PVSystem.PV_6 phases=3 bus1=82032765552819.1.2.3.4 kv=0.38 pmpp=216.98966433097652 temperature=25 pf=1 
~ %cutin=0.1 %cutout=0.1 effcurve=PowerInputxEfficiency P-tCurve=TemperaturexFactor Daily=Irrad3 Tdaily=Temperature
New PVSystem.PV_7 phases=3 bus1=82025745286821.1.2.3.4 kv=0.38 pmpp=210.99196843364442 temperature=25 pf=1 
~ %cutin=0.1 %cutout=0.1 effcurve=PowerInputxEfficiency P-tCurve=TemperaturexFactor Daily=Irrad4 Tdaily=Temperature
New PVSystem.PV_8 phases=3 bus1=82025745286821.1.2.3.4 kv=0.38 pmpp=210.99196843364442 temperature=25 pf=1 
~ %cutin=0.1 %cutout=0.1 effcurve=PowerInputxEfficiency P-tCurve=TemperaturexFactor Daily=Irrad4 Tdaily=Temperature
New PVSystem.PV_9 phases=3 bus1=82049885286934.1.2.3.4 kv=0.38 pmpp=210.09331498291257 temperature=25 pf=1 
~ %cutin=0.1 %cutout=0.1 effcurve=PowerInputxEfficiency P-tCurve=TemperaturexFactor Daily=Irrad5 Tdaily=Temperature
New PVSystem.PV_10 phases=3 bus1=82049885286934.1.2.3.4 kv=0.38 pmpp=210.09331498291257 temperature=25 pf=1 
~ %cutin=0.1 %cutout=0.1 effcurve=PowerInputxEfficiency P-tCurve=TemperaturexFactor Daily=Irrad5 Tdaily=Temperature
New PVSystem.PV_11 phases=3 bus1=82023395286788.1.2.3.4 kv=0.38 pmpp=204.42369574461028 temperature=25 pf=1 
~ %cutin=0.1 %cutout=0.1 effcurve=PowerInputxEfficiency P-tCurve=TemperaturexFactor Daily=Irrad6 Tdaily=Temperature
New PVSystem.PV_12 phases=3 bus1=82023395286788.1.2.3.4 kv=0.38 pmpp=204.42369574461028 temperature=25 pf=1 
~ %cutin=0.1 %cutout=0.1 effcurve=PowerInputxEfficiency P-tCurve=TemperaturexFactor Daily=Irrad6 Tdaily=Temperature
New PVSystem.PV_13 phases=3 bus1=82049545286931.1.2.3.4 kv=0.38 pmpp=199.3237686375556 temperature=25 pf=1 
~ %cutin=0.1 %cutout=0.1 effcurve=PowerInputxEfficiency P-tCurve=TemperaturexFactor Daily=Irrad7 Tdaily=Temperature
New PVSystem.PV_14 phases=3 bus1=82049545286931.1.2.3.4 kv=0.38 pmpp=199.3237686375556 temperature=25 pf=1 
~ %cutin=0.1 %cutout=0.1 effcurve=PowerInputxEfficiency P-tCurve=TemperaturexFactor Daily=Irrad7 Tdaily=Temperature
New PVSystem.PV_15 phases=3 bus1=82028035286810.1.2.3.4 kv=0.38 pmpp=199.1606392004324 temperature=25 pf=1 
~ %cutin=0.1 %cutout=0.1 effcurve=PowerInputxEfficiency P-tCurve=TemperaturexFactor Daily=Irrad8 Tdaily=Temperature
New PVSystem.PV_16 phases=3 bus1=82028035286810.1.2.3.4 kv=0.38 pmpp=199.1606392004324 temperature=25 pf=1 
~ %cutin=0.1 %cutout=0.1 effcurve=PowerInputxEfficiency P-tCurve=TemperaturexFactor Daily=Irrad8 Tdaily=Temperature
New PVSystem.PV_17 phases=3 bus1=82054305286917.1.2.3.4 kv=0.38 pmpp=197.456876013439 temperature=25 pf=1 
~ %cutin=0.1 %cutout=0.1 effcurve=PowerInputxEfficiency P-tCurve=TemperaturexFactor Daily=Irrad9 Tdaily=Temperature
New PVSystem.PV_18 phases=3 bus1=82054305286917.1.2.3.4 kv=0.38 pmpp=197.456876013439 temperature=25 pf=1 
~ %cutin=0.1 %cutout=0.1 effcurve=PowerInputxEfficiency P-tCurve=TemperaturexFactor Daily=Irrad9 Tdaily=Temperature
New PVSystem.PV_19 phases=3 bus1=82020175286794.1.2.3.4 kv=0.38 pmpp=183.0670994140976 temperature=25 pf=1 
~ %cutin=0.1 %cutout=0.1 effcurve=PowerInputxEfficiency P-tCurve=TemperaturexFactor Daily=Irrad10 Tdaily=Temperature
New PVSystem.PV_20 phases=3 bus1=82020175286794.1.2.3.4 kv=0.38 pmpp=183.0670994140976 temperature=25 pf=1 
~ %cutin=0.1 %cutout=0.1 effcurve=PowerInputxEfficiency P-tCurve=TemperaturexFactor Daily=Irrad10 Tdaily=Temperature
New PVSystem.PV_21 phases=3 bus1=97400945286961.1.2.3.4 kv=0.38 pmpp=181.98414837863567 temperature=25 pf=1 
~ %cutin=0.1 %cutout=0.1 effcurve=PowerInputxEfficiency P-tCurve=TemperaturexFactor Daily=Irrad11 Tdaily=Temperature
New PVSystem.PV_22 phases=3 bus1=97400945286961.1.2.3.4 kv=0.38 pmpp=181.98414837863567 temperature=25 pf=1 
~ %cutin=0.1 %cutout=0.1 effcurve=PowerInputxEfficiency P-tCurve=TemperaturexFactor Daily=Irrad11 Tdaily=Temperature
New PVSystem.PV_23 phases=3 bus1=82037555286840.1.2.3.4 kv=0.38 pmpp=180.48165449939495 temperature=25 pf=1 
~ %cutin=0.1 %cutout=0.1 effcurve=PowerInputxEfficiency P-tCurve=TemperaturexFactor Daily=Irrad12 Tdaily=Temperature
New PVSystem.PV_24 phases=3 bus1=82037555286840.1.2.3.4 kv=0.38 pmpp=180.48165449939495 temperature=25 pf=1 
~ %cutin=0.1 %cutout=0.1 effcurve=PowerInputxEfficiency P-tCurve=TemperaturexFactor Daily=Irrad12 Tdaily=Temperature
New PVSystem.PV_25 phases=3 bus1=82027735286815.1.2.3.4 kv=0.38 pmpp=179.01894807428133 temperature=25 pf=1 
~ %cutin=0.1 %cutout=0.1 effcurve=PowerInputxEfficiency P-tCurve=TemperaturexFactor Daily=Irrad13 Tdaily=Temperature
New PVSystem.PV_26 phases=3 bus1=82027735286815.1.2.3.4 kv=0.38 pmpp=179.01894807428133 temperature=25 pf=1 
~ %cutin=0.1 %cutout=0.1 effcurve=PowerInputxEfficiency P-tCurve=TemperaturexFactor Daily=Irrad13 Tdaily=Temperature
New PVSystem.PV_27 phases=3 bus1=82027905286808.1.2.3.4 kv=0.38 pmpp=174.57464591977168 temperature=25 pf=1 
~ %cutin=0.1 %cutout=0.1 effcurve=PowerInputxEfficiency P-tCurve=TemperaturexFactor Daily=Irrad14 Tdaily=Temperature
New PVSystem.PV_28 phases=3 bus1=82027905286808.1.2.3.4 kv=0.38 pmpp=174.57464591977168 temperature=25 pf=1 
~ %cutin=0.1 %cutout=0.1 effcurve=PowerInputxEfficiency P-tCurve=TemperaturexFactor Daily=Irrad14 Tdaily=Temperature
New PVSystem.PV_29 phases=3 bus1=82031445286959.1.2.3.4 kv=0.38 pmpp=173.55610105778828 temperature=25 pf=1 
~ %cutin=0.1 %cutout=0.1 effcurve=PowerInputxEfficiency P-tCurve=TemperaturexFactor Daily=Irrad15 Tdaily=Temperature
New PVSystem.PV_30 phases=3 bus1=82031445286959.1.2.3.4 kv=0.38 pmpp=173.55610105778828 temperature=25 pf=1 
~ %cutin=0.1 %cutout=0.1 effcurve=PowerInputxEfficiency P-tCurve=TemperaturexFactor Daily=Irrad15 Tdaily=Temperature
New PVSystem.PV_31 phases=3 bus1=90855665286807.1.2.3.4 kv=0.38 pmpp=172.6392220921182 temperature=25 pf=1 
~ %cutin=0.1 %cutout=0.1 effcurve=PowerInputxEfficiency P-tCurve=TemperaturexFactor Daily=Irrad16 Tdaily=Temperature
New PVSystem.PV_32 phases=3 bus1=90855665286807.1.2.3.4 kv=0.38 pmpp=172.6392220921182 temperature=25 pf=1 
~ %cutin=0.1 %cutout=0.1 effcurve=PowerInputxEfficiency P-tCurve=TemperaturexFactor Daily=Irrad16 Tdaily=Temperature
New PVSystem.PV_33 phases=3 bus1=82053975286918.1.2.3.4 kv=0.38 pmpp=168.9086286699002 temperature=25 pf=1 
~ %cutin=0.1 %cutout=0.1 effcurve=PowerInputxEfficiency P-tCurve=TemperaturexFactor Daily=Irrad17 Tdaily=Temperature
New PVSystem.PV_34 phases=3 bus1=82053975286918.1.2.3.4 kv=0.38 pmpp=168.9086286699002 temperature=25 pf=1 
~ %cutin=0.1 %cutout=0.1 effcurve=PowerInputxEfficiency P-tCurve=TemperaturexFactor Daily=Irrad17 Tdaily=Temperature
New PVSystem.PV_35 phases=3 bus1=82027135286819.1.2.3.4 kv=0.38 pmpp=157.5805863863623 temperature=25 pf=1 
~ %cutin=0.1 %cutout=0.1 effcurve=PowerInputxEfficiency P-tCurve=TemperaturexFactor Daily=Irrad18 Tdaily=Temperature
New PVSystem.PV_36 phases=3 bus1=82027135286819.1.2.3.4 kv=0.38 pmpp=157.5805863863623 temperature=25 pf=1 
~ %cutin=0.1 %cutout=0.1 effcurve=PowerInputxEfficiency P-tCurve=TemperaturexFactor Daily=Irrad18 Tdaily=Temperature
New PVSystem.PV_37 phases=3 bus1=82027655286814.1.2.3.4 kv=0.38 pmpp=157.32363516715057 temperature=25 pf=1 
~ %cutin=0.1 %cutout=0.1 effcurve=PowerInputxEfficiency P-tCurve=TemperaturexFactor Daily=Irrad19 Tdaily=Temperature
New PVSystem.PV_38 phases=3 bus1=82027655286814.1.2.3.4 kv=0.38 pmpp=157.32363516715057 temperature=25 pf=1 
~ %cutin=0.1 %cutout=0.1 effcurve=PowerInputxEfficiency P-tCurve=TemperaturexFactor Daily=Irrad19 Tdaily=Temperature
New PVSystem.PV_39 phases=3 bus1=82062475286857.1.2.3.4 kv=0.38 pmpp=155.71607639705107 temperature=25 pf=1 
~ %cutin=0.1 %cutout=0.1 effcurve=PowerInputxEfficiency P-tCurve=TemperaturexFactor Daily=Irrad20 Tdaily=Temperature
New PVSystem.PV_40 phases=3 bus1=82062475286857.1.2.3.4 kv=0.38 pmpp=155.71607639705107 temperature=25 pf=1 
~ %cutin=0.1 %cutout=0.1 effcurve=PowerInputxEfficiency P-tCurve=TemperaturexFactor Daily=Irrad20 Tdaily=Temperature
New PVSystem.PV_41 phases=3 bus1=82038095286834.1.2.3.4 kv=0.38 pmpp=155.5497447635974 temperature=25 pf=1 
~ %cutin=0.1 %cutout=0.1 effcurve=PowerInputxEfficiency P-tCurve=TemperaturexFactor Daily=Irrad21 Tdaily=Temperature
New PVSystem.PV_42 phases=3 bus1=82038095286834.1.2.3.4 kv=0.38 pmpp=155.5497447635974 temperature=25 pf=1 
~ %cutin=0.1 %cutout=0.1 effcurve=PowerInputxEfficiency P-tCurve=TemperaturexFactor Daily=Irrad21 Tdaily=Temperature
New PVSystem.PV_43 phases=3 bus1=82021995286799.1.2.3.4 kv=0.38 pmpp=154.84925714286177 temperature=25 pf=1 
~ %cutin=0.1 %cutout=0.1 effcurve=PowerInputxEfficiency P-tCurve=TemperaturexFactor Daily=Irrad22 Tdaily=Temperature
New PVSystem.PV_44 phases=3 bus1=82021995286799.1.2.3.4 kv=0.38 pmpp=154.84925714286177 temperature=25 pf=1 
~ %cutin=0.1 %cutout=0.1 effcurve=PowerInputxEfficiency P-tCurve=TemperaturexFactor Daily=Irrad22 Tdaily=Temperature
New PVSystem.PV_45 phases=3 bus1=82036745286803.1.2.3.4 kv=0.38 pmpp=154.25849849755795 temperature=25 pf=1 
~ %cutin=0.1 %cutout=0.1 effcurve=PowerInputxEfficiency P-tCurve=TemperaturexFactor Daily=Irrad23 Tdaily=Temperature
New PVSystem.PV_46 phases=3 bus1=82036745286803.1.2.3.4 kv=0.38 pmpp=154.25849849755795 temperature=25 pf=1 
~ %cutin=0.1 %cutout=0.1 effcurve=PowerInputxEfficiency P-tCurve=TemperaturexFactor Daily=Irrad23 Tdaily=Temperature
New PVSystem.PV_47 phases=3 bus1=82026685286811.1.2.3.4 kv=0.38 pmpp=150.38251132048174 temperature=25 pf=1 
~ %cutin=0.1 %cutout=0.1 effcurve=PowerInputxEfficiency P-tCurve=TemperaturexFactor Daily=Irrad24 Tdaily=Temperature
New PVSystem.PV_48 phases=3 bus1=82026685286811.1.2.3.4 kv=0.38 pmpp=150.38251132048174 temperature=25 pf=1 
~ %cutin=0.1 %cutout=0.1 effcurve=PowerInputxEfficiency P-tCurve=TemperaturexFactor Daily=Irrad24 Tdaily=Temperature
New PVSystem.PV_49 phases=3 bus1=82022605286791.1.2.3.4 kv=0.38 pmpp=149.50329275742524 temperature=25 pf=1 
~ %cutin=0.1 %cutout=0.1 effcurve=PowerInputxEfficiency P-tCurve=TemperaturexFactor Daily=Irrad25 Tdaily=Temperature
New PVSystem.PV_50 phases=3 bus1=82022605286791.1.2.3.4 kv=0.38 pmpp=149.50329275742524 temperature=25 pf=1 
~ %cutin=0.1 %cutout=0.1 effcurve=PowerInputxEfficiency P-tCurve=TemperaturexFactor Daily=Irrad25 Tdaily=Temperature
New PVSystem.PV_51 phases=3 bus1=82034555505307.1.2.3.4 kv=0.38 pmpp=147.22633001424876 temperature=25 pf=1 
~ %cutin=0.1 %cutout=0.1 effcurve=PowerInputxEfficiency P-tCurve=TemperaturexFactor Daily=Irrad26 Tdaily=Temperature
New PVSystem.PV_52 phases=3 bus1=82034555505307.1.2.3.4 kv=0.38 pmpp=147.22633001424876 temperature=25 pf=1 
~ %cutin=0.1 %cutout=0.1 effcurve=PowerInputxEfficiency P-tCurve=TemperaturexFactor Daily=Irrad26 Tdaily=Temperature
New PVSystem.PV_53 phases=3 bus1=82029355286816.1.2.3.4 kv=0.38 pmpp=146.71354474604416 temperature=25 pf=1 
~ %cutin=0.1 %cutout=0.1 effcurve=PowerInputxEfficiency P-tCurve=TemperaturexFactor Daily=Irrad27 Tdaily=Temperature
New PVSystem.PV_54 phases=3 bus1=82029355286816.1.2.3.4 kv=0.38 pmpp=146.71354474604416 temperature=25 pf=1 
~ %cutin=0.1 %cutout=0.1 effcurve=PowerInputxEfficiency P-tCurve=TemperaturexFactor Daily=Irrad27 Tdaily=Temperature
New PVSystem.PV_55 phases=3 bus1=82035485286965.1.2.3.4 kv=0.38 pmpp=145.74973323122583 temperature=25 pf=1 
~ %cutin=0.1 %cutout=0.1 effcurve=PowerInputxEfficiency P-tCurve=TemperaturexFactor Daily=Irrad28 Tdaily=Temperature
New PVSystem.PV_56 phases=3 bus1=82035485286965.1.2.3.4 kv=0.38 pmpp=145.74973323122583 temperature=25 pf=1 
~ %cutin=0.1 %cutout=0.1 effcurve=PowerInputxEfficiency P-tCurve=TemperaturexFactor Daily=Irrad28 Tdaily=Temperature
New PVSystem.PV_57 phases=3 bus1=82033055286804.1.2.3.4 kv=0.38 pmpp=141.9069131347847 temperature=25 pf=1 
~ %cutin=0.1 %cutout=0.1 effcurve=PowerInputxEfficiency P-tCurve=TemperaturexFactor Daily=Irrad29 Tdaily=Temperature
New PVSystem.PV_58 phases=3 bus1=82033055286804.1.2.3.4 kv=0.38 pmpp=141.9069131347847 temperature=25 pf=1 
~ %cutin=0.1 %cutout=0.1 effcurve=PowerInputxEfficiency P-tCurve=TemperaturexFactor Daily=Irrad29 Tdaily=Temperature
New PVSystem.PV_59 phases=3 bus1=82031405286958.1.2.3.4 kv=0.38 pmpp=138.640805019638 temperature=25 pf=1 
~ %cutin=0.1 %cutout=0.1 effcurve=PowerInputxEfficiency P-tCurve=TemperaturexFactor Daily=Irrad30 Tdaily=Temperature
New PVSystem.PV_60 phases=3 bus1=82031405286958.1.2.3.4 kv=0.38 pmpp=138.640805019638 temperature=25 pf=1 
~ %cutin=0.1 %cutout=0.1 effcurve=PowerInputxEfficiency P-tCurve=TemperaturexFactor Daily=Irrad30 Tdaily=Temperature
New PVSystem.PV_61 phases=3 bus1=81460505286830.1.2.3.4 kv=0.38 pmpp=137.32306915068233 temperature=25 pf=1 
~ %cutin=0.1 %cutout=0.1 effcurve=PowerInputxEfficiency P-tCurve=TemperaturexFactor Daily=Irrad31 Tdaily=Temperature
New PVSystem.PV_62 phases=3 bus1=81460505286830.1.2.3.4 kv=0.38 pmpp=137.32306915068233 temperature=25 pf=1 
~ %cutin=0.1 %cutout=0.1 effcurve=PowerInputxEfficiency P-tCurve=TemperaturexFactor Daily=Irrad31 Tdaily=Temperature
New PVSystem.PV_63 phases=3 bus1=82049805286933.1.2.3.4 kv=0.38 pmpp=134.2704338078267 temperature=25 pf=1 
~ %cutin=0.1 %cutout=0.1 effcurve=PowerInputxEfficiency P-tCurve=TemperaturexFactor Daily=Irrad32 Tdaily=Temperature
New PVSystem.PV_64 phases=3 bus1=82049805286933.1.2.3.4 kv=0.38 pmpp=134.2704338078267 temperature=25 pf=1 
~ %cutin=0.1 %cutout=0.1 effcurve=PowerInputxEfficiency P-tCurve=TemperaturexFactor Daily=Irrad32 Tdaily=Temperature
New PVSystem.PV_65 phases=3 bus1=82024325286800.1.2.3.4 kv=0.38 pmpp=132.89188783897987 temperature=25 pf=1 
~ %cutin=0.1 %cutout=0.1 effcurve=PowerInputxEfficiency P-tCurve=TemperaturexFactor Daily=Irrad33 Tdaily=Temperature
New PVSystem.PV_66 phases=3 bus1=82024325286800.1.2.3.4 kv=0.38 pmpp=132.89188783897987 temperature=25 pf=1 
~ %cutin=0.1 %cutout=0.1 effcurve=PowerInputxEfficiency P-tCurve=TemperaturexFactor Daily=Irrad33 Tdaily=Temperature
New PVSystem.PV_67 phases=3 bus1=82054235286916.1.2.3.4 kv=0.38 pmpp=132.72627640506522 temperature=25 pf=1 
~ %cutin=0.1 %cutout=0.1 effcurve=PowerInputxEfficiency P-tCurve=TemperaturexFactor Daily=Irrad34 Tdaily=Temperature
New PVSystem.PV_68 phases=3 bus1=82054235286916.1.2.3.4 kv=0.38 pmpp=132.72627640506522 temperature=25 pf=1 
~ %cutin=0.1 %cutout=0.1 effcurve=PowerInputxEfficiency P-tCurve=TemperaturexFactor Daily=Irrad34 Tdaily=Temperature
New PVSystem.PV_69 phases=3 bus1=82020405286795.1.2.3.4 kv=0.38 pmpp=131.15815708655313 temperature=25 pf=1 
~ %cutin=0.1 %cutout=0.1 effcurve=PowerInputxEfficiency P-tCurve=TemperaturexFactor Daily=Irrad35 Tdaily=Temperature
New PVSystem.PV_70 phases=3 bus1=82020405286795.1.2.3.4 kv=0.38 pmpp=131.15815708655313 temperature=25 pf=1 
~ %cutin=0.1 %cutout=0.1 effcurve=PowerInputxEfficiency P-tCurve=TemperaturexFactor Daily=Irrad35 Tdaily=Temperature
New PVSystem.PV_71 phases=3 bus1=82038115286835.1.2.3.4 kv=0.38 pmpp=129.97310188449933 temperature=25 pf=1 
~ %cutin=0.1 %cutout=0.1 effcurve=PowerInputxEfficiency P-tCurve=TemperaturexFactor Daily=Irrad36 Tdaily=Temperature
New PVSystem.PV_72 phases=3 bus1=82038115286835.1.2.3.4 kv=0.38 pmpp=129.97310188449933 temperature=25 pf=1 
~ %cutin=0.1 %cutout=0.1 effcurve=PowerInputxEfficiency P-tCurve=TemperaturexFactor Daily=Irrad36 Tdaily=Temperature
New PVSystem.PV_73 phases=3 bus1=82022455286790.1.2.3.4 kv=0.38 pmpp=129.39546514737222 temperature=25 pf=1 
~ %cutin=0.1 %cutout=0.1 effcurve=PowerInputxEfficiency P-tCurve=TemperaturexFactor Daily=Irrad37 Tdaily=Temperature
New PVSystem.PV_74 phases=3 bus1=82022455286790.1.2.3.4 kv=0.38 pmpp=129.39546514737222 temperature=25 pf=1 
~ %cutin=0.1 %cutout=0.1 effcurve=PowerInputxEfficiency P-tCurve=TemperaturexFactor Daily=Irrad37 Tdaily=Temperature
New PVSystem.PV_75 phases=3 bus1=82036045286966.1.2.3.4 kv=0.38 pmpp=129.19281331694285 temperature=25 pf=1 
~ %cutin=0.1 %cutout=0.1 effcurve=PowerInputxEfficiency P-tCurve=TemperaturexFactor Daily=Irrad38 Tdaily=Temperature
New PVSystem.PV_76 phases=3 bus1=82036045286966.1.2.3.4 kv=0.38 pmpp=129.19281331694285 temperature=25 pf=1 
~ %cutin=0.1 %cutout=0.1 effcurve=PowerInputxEfficiency P-tCurve=TemperaturexFactor Daily=Irrad38 Tdaily=Temperature
New PVSystem.PV_77 phases=3 bus1=82038825286839.1.2.3.4 kv=0.38 pmpp=126.6078606628031 temperature=25 pf=1 
~ %cutin=0.1 %cutout=0.1 effcurve=PowerInputxEfficiency P-tCurve=TemperaturexFactor Daily=Irrad39 Tdaily=Temperature
New PVSystem.PV_78 phases=3 bus1=82038825286839.1.2.3.4 kv=0.38 pmpp=126.6078606628031 temperature=25 pf=1 
~ %cutin=0.1 %cutout=0.1 effcurve=PowerInputxEfficiency P-tCurve=TemperaturexFactor Daily=Irrad39 Tdaily=Temperature
New PVSystem.PV_79 phases=3 bus1=82063385286866.1.2.3.4 kv=0.38 pmpp=125.71654822055113 temperature=25 pf=1 
~ %cutin=0.1 %cutout=0.1 effcurve=PowerInputxEfficiency P-tCurve=TemperaturexFactor Daily=Irrad40 Tdaily=Temperature
New PVSystem.PV_80 phases=3 bus1=82063385286866.1.2.3.4 kv=0.38 pmpp=125.71654822055113 temperature=25 pf=1 
~ %cutin=0.1 %cutout=0.1 effcurve=PowerInputxEfficiency P-tCurve=TemperaturexFactor Daily=Irrad40 Tdaily=Temperature
New PVSystem.PV_81 phases=3 bus1=82033945286960.1.2.3.4 kv=0.38 pmpp=124.89701878975396 temperature=25 pf=1 
~ %cutin=0.1 %cutout=0.1 effcurve=PowerInputxEfficiency P-tCurve=TemperaturexFactor Daily=Irrad41 Tdaily=Temperature
New PVSystem.PV_82 phases=3 bus1=82033945286960.1.2.3.4 kv=0.38 pmpp=124.89701878975396 temperature=25 pf=1 
~ %cutin=0.1 %cutout=0.1 effcurve=PowerInputxEfficiency P-tCurve=TemperaturexFactor Daily=Irrad41 Tdaily=Temperature
New PVSystem.PV_83 phases=3 bus1=82041995286833.1.2.3.4 kv=0.38 pmpp=124.8464868803517 temperature=25 pf=1 
~ %cutin=0.1 %cutout=0.1 effcurve=PowerInputxEfficiency P-tCurve=TemperaturexFactor Daily=Irrad42 Tdaily=Temperature
New PVSystem.PV_84 phases=3 bus1=82041995286833.1.2.3.4 kv=0.38 pmpp=124.8464868803517 temperature=25 pf=1 
~ %cutin=0.1 %cutout=0.1 effcurve=PowerInputxEfficiency P-tCurve=TemperaturexFactor Daily=Irrad42 Tdaily=Temperature
New PVSystem.PV_85 phases=3 bus1=82065285286862.1.2.3.4 kv=0.38 pmpp=124.8077647130839 temperature=25 pf=1 
~ %cutin=0.1 %cutout=0.1 effcurve=PowerInputxEfficiency P-tCurve=TemperaturexFactor Daily=Irrad43 Tdaily=Temperature
New PVSystem.PV_86 phases=3 bus1=82065285286862.1.2.3.4 kv=0.38 pmpp=124.8077647130839 temperature=25 pf=1 
~ %cutin=0.1 %cutout=0.1 effcurve=PowerInputxEfficiency P-tCurve=TemperaturexFactor Daily=Irrad43 Tdaily=Temperature
New PVSystem.PV_87 phases=3 bus1=82023305286787.1.2.3.4 kv=0.38 pmpp=124.14138547145147 temperature=25 pf=1 
~ %cutin=0.1 %cutout=0.1 effcurve=PowerInputxEfficiency P-tCurve=TemperaturexFactor Daily=Irrad44 Tdaily=Temperature
New PVSystem.PV_88 phases=3 bus1=82023305286787.1.2.3.4 kv=0.38 pmpp=124.14138547145147 temperature=25 pf=1 
~ %cutin=0.1 %cutout=0.1 effcurve=PowerInputxEfficiency P-tCurve=TemperaturexFactor Daily=Irrad44 Tdaily=Temperature
New PVSystem.PV_89 phases=3 bus1=82019965286792.1.2.3.4 kv=0.38 pmpp=123.60519186783698 temperature=25 pf=1 
~ %cutin=0.1 %cutout=0.1 effcurve=PowerInputxEfficiency P-tCurve=TemperaturexFactor Daily=Irrad45 Tdaily=Temperature
New PVSystem.PV_90 phases=3 bus1=82019965286792.1.2.3.4 kv=0.38 pmpp=123.60519186783698 temperature=25 pf=1 
~ %cutin=0.1 %cutout=0.1 effcurve=PowerInputxEfficiency P-tCurve=TemperaturexFactor Daily=Irrad45 Tdaily=Temperature
New PVSystem.PV_91 phases=3 bus1=82053635286914.1.2.3.4 kv=0.38 pmpp=123.25778949008512 temperature=25 pf=1 
~ %cutin=0.1 %cutout=0.1 effcurve=PowerInputxEfficiency P-tCurve=TemperaturexFactor Daily=Irrad46 Tdaily=Temperature
New PVSystem.PV_92 phases=3 bus1=82053635286914.1.2.3.4 kv=0.38 pmpp=123.25778949008512 temperature=25 pf=1 
~ %cutin=0.1 %cutout=0.1 effcurve=PowerInputxEfficiency P-tCurve=TemperaturexFactor Daily=Irrad46 Tdaily=Temperature
New PVSystem.PV_93 phases=3 bus1=82024965286806.1.2.3.4 kv=0.38 pmpp=122.84769256283292 temperature=25 pf=1 
~ %cutin=0.1 %cutout=0.1 effcurve=PowerInputxEfficiency P-tCurve=TemperaturexFactor Daily=Irrad47 Tdaily=Temperature
New PVSystem.PV_94 phases=3 bus1=82024965286806.1.2.3.4 kv=0.38 pmpp=122.84769256283292 temperature=25 pf=1 
~ %cutin=0.1 %cutout=0.1 effcurve=PowerInputxEfficiency P-tCurve=TemperaturexFactor Daily=Irrad47 Tdaily=Temperature
New PVSystem.PV_95 phases=3 bus1=82028045286809.1.2.3.4 kv=0.38 pmpp=121.9606539999099 temperature=25 pf=1 
~ %cutin=0.1 %cutout=0.1 effcurve=PowerInputxEfficiency P-tCurve=TemperaturexFactor Daily=Irrad48 Tdaily=Temperature
New PVSystem.PV_96 phases=3 bus1=82028045286809.1.2.3.4 kv=0.38 pmpp=121.9606539999099 temperature=25 pf=1 
~ %cutin=0.1 %cutout=0.1 effcurve=PowerInputxEfficiency P-tCurve=TemperaturexFactor Daily=Irrad48 Tdaily=Temperature
New PVSystem.PV_97 phases=3 bus1=82050465286938.1.2.3.4 kv=0.38 pmpp=121.93162033109849 temperature=25 pf=1 
~ %cutin=0.1 %cutout=0.1 effcurve=PowerInputxEfficiency P-tCurve=TemperaturexFactor Daily=Irrad49 Tdaily=Temperature
New PVSystem.PV_98 phases=3 bus1=82050465286938.1.2.3.4 kv=0.38 pmpp=121.93162033109849 temperature=25 pf=1 
~ %cutin=0.1 %cutout=0.1 effcurve=PowerInputxEfficiency P-tCurve=TemperaturexFactor Daily=Irrad49 Tdaily=Temperature
New PVSystem.PV_99 phases=3 bus1=82044385286867.1.2.3.4 kv=0.38 pmpp=118.53411120758585 temperature=25 pf=1 
~ %cutin=0.1 %cutout=0.1 effcurve=PowerInputxEfficiency P-tCurve=TemperaturexFactor Daily=Irrad50 Tdaily=Temperature
New PVSystem.PV_100 phases=3 bus1=82044385286867.1.2.3.4 kv=0.38 pmpp=118.53411120758585 temperature=25 pf=1 
~ %cutin=0.1 %cutout=0.1 effcurve=PowerInputxEfficiency P-tCurve=TemperaturexFactor Daily=Irrad50 Tdaily=Temperature
New PVSystem.PV_101 phases=3 bus1=82039695286842.1.2.3.4 kv=0.38 pmpp=117.24408784127017 temperature=25 pf=1 
~ %cutin=0.1 %cutout=0.1 effcurve=PowerInputxEfficiency P-tCurve=TemperaturexFactor Daily=Irrad51 Tdaily=Temperature
New PVSystem.PV_102 phases=3 bus1=82039695286842.1.2.3.4 kv=0.38 pmpp=117.24408784127017 temperature=25 pf=1 
~ %cutin=0.1 %cutout=0.1 effcurve=PowerInputxEfficiency P-tCurve=TemperaturexFactor Daily=Irrad51 Tdaily=Temperature
New PVSystem.PV_103 phases=3 bus1=82042655286828.1.2.3.4 kv=0.38 pmpp=114.64506510474662 temperature=25 pf=1 
~ %cutin=0.1 %cutout=0.1 effcurve=PowerInputxEfficiency P-tCurve=TemperaturexFactor Daily=Irrad52 Tdaily=Temperature
New PVSystem.PV_104 phases=3 bus1=82042655286828.1.2.3.4 kv=0.38 pmpp=114.64506510474662 temperature=25 pf=1 
~ %cutin=0.1 %cutout=0.1 effcurve=PowerInputxEfficiency P-tCurve=TemperaturexFactor Daily=Irrad52 Tdaily=Temperature
New PVSystem.PV_105 phases=3 bus1=82043025286831.1.2.3.4 kv=0.38 pmpp=114.0781895921301 temperature=25 pf=1 
~ %cutin=0.1 %cutout=0.1 effcurve=PowerInputxEfficiency P-tCurve=TemperaturexFactor Daily=Irrad53 Tdaily=Temperature
New PVSystem.PV_106 phases=3 bus1=82043025286831.1.2.3.4 kv=0.38 pmpp=114.0781895921301 temperature=25 pf=1 
~ %cutin=0.1 %cutout=0.1 effcurve=PowerInputxEfficiency P-tCurve=TemperaturexFactor Daily=Irrad53 Tdaily=Temperature
New PVSystem.PV_107 phases=3 bus1=82042275286845.1.2.3.4 kv=0.38 pmpp=113.64080862354623 temperature=25 pf=1 
~ %cutin=0.1 %cutout=0.1 effcurve=PowerInputxEfficiency P-tCurve=TemperaturexFactor Daily=Irrad54 Tdaily=Temperature
New PVSystem.PV_108 phases=3 bus1=82042275286845.1.2.3.4 kv=0.38 pmpp=113.64080862354623 temperature=25 pf=1 
~ %cutin=0.1 %cutout=0.1 effcurve=PowerInputxEfficiency P-tCurve=TemperaturexFactor Daily=Irrad54 Tdaily=Temperature
New PVSystem.PV_109 phases=3 bus1=82040415286945.1.2.3.4 kv=0.38 pmpp=112.75915568281361 temperature=25 pf=1 
~ %cutin=0.1 %cutout=0.1 effcurve=PowerInputxEfficiency P-tCurve=TemperaturexFactor Daily=Irrad55 Tdaily=Temperature
New PVSystem.PV_110 phases=3 bus1=82040415286945.1.2.3.4 kv=0.38 pmpp=112.75915568281361 temperature=25 pf=1 
~ %cutin=0.1 %cutout=0.1 effcurve=PowerInputxEfficiency P-tCurve=TemperaturexFactor Daily=Irrad55 Tdaily=Temperature
New PVSystem.PV_111 phases=3 bus1=82044325557353.1.2.3.4 kv=0.38 pmpp=112.25863842705208 temperature=25 pf=1 
~ %cutin=0.1 %cutout=0.1 effcurve=PowerInputxEfficiency P-tCurve=TemperaturexFactor Daily=Irrad56 Tdaily=Temperature
New PVSystem.PV_112 phases=3 bus1=82044325557353.1.2.3.4 kv=0.38 pmpp=112.25863842705208 temperature=25 pf=1 
~ %cutin=0.1 %cutout=0.1 effcurve=PowerInputxEfficiency P-tCurve=TemperaturexFactor Daily=Irrad56 Tdaily=Temperature
New PVSystem.PV_113 phases=3 bus1=82056915286890.1.2.3.4 kv=0.38 pmpp=111.37552782044202 temperature=25 pf=1 
~ %cutin=0.1 %cutout=0.1 effcurve=PowerInputxEfficiency P-tCurve=TemperaturexFactor Daily=Irrad57 Tdaily=Temperature
New PVSystem.PV_114 phases=3 bus1=82056915286890.1.2.3.4 kv=0.38 pmpp=111.37552782044202 temperature=25 pf=1 
~ %cutin=0.1 %cutout=0.1 effcurve=PowerInputxEfficiency P-tCurve=TemperaturexFactor Daily=Irrad57 Tdaily=Temperature
New PVSystem.PV_115 phases=3 bus1=82056385286891.1.2.3.4 kv=0.38 pmpp=110.6261517236048 temperature=25 pf=1 
~ %cutin=0.1 %cutout=0.1 effcurve=PowerInputxEfficiency P-tCurve=TemperaturexFactor Daily=Irrad58 Tdaily=Temperature
New PVSystem.PV_116 phases=3 bus1=82056385286891.1.2.3.4 kv=0.38 pmpp=110.6261517236048 temperature=25 pf=1 
~ %cutin=0.1 %cutout=0.1 effcurve=PowerInputxEfficiency P-tCurve=TemperaturexFactor Daily=Irrad58 Tdaily=Temperature
New PVSystem.PV_117 phases=3 bus1=82064145286858.1.2.3.4 kv=0.38 pmpp=110.23358246904446 temperature=25 pf=1 
~ %cutin=0.1 %cutout=0.1 effcurve=PowerInputxEfficiency P-tCurve=TemperaturexFactor Daily=Irrad59 Tdaily=Temperature
New PVSystem.PV_118 phases=3 bus1=82064145286858.1.2.3.4 kv=0.38 pmpp=110.23358246904446 temperature=25 pf=1 
~ %cutin=0.1 %cutout=0.1 effcurve=PowerInputxEfficiency P-tCurve=TemperaturexFactor Daily=Irrad59 Tdaily=Temperature
New PVSystem.PV_119 phases=3 bus1=82040015286941.1.2.3.4 kv=0.38 pmpp=110.2079462865912 temperature=25 pf=1 
~ %cutin=0.1 %cutout=0.1 effcurve=PowerInputxEfficiency P-tCurve=TemperaturexFactor Daily=Irrad60 Tdaily=Temperature
New PVSystem.PV_120 phases=3 bus1=82040015286941.1.2.3.4 kv=0.38 pmpp=110.2079462865912 temperature=25 pf=1 
~ %cutin=0.1 %cutout=0.1 effcurve=PowerInputxEfficiency P-tCurve=TemperaturexFactor Daily=Irrad60 Tdaily=Temperature
